Circuit: * C:\Users\mark_\Documents\ELECTENG 209\209\Labs\AnalogueLab2\Lab2Task3.asc

Direct Newton iteration for .op point succeeded.

Date: Wed Aug 17 12:59:06 2016
Total elapsed time: 0.036 seconds.

tnom = 27
temp = 27
method = modified trap
totiter = 2457
traniter = 2445
tranpoints = 857
accept = 578
rejected = 279
matrix size = 11
fillins = 4
solver = Normal
Matrix Compiler1:      79 opcodes  0.3/[0.1]/0.1
Matrix Compiler2: 1.07 KB object code size  0.1/0.2/[0.1]


