Circuit: * C:\Users\adilb_000\Desktop\Git 209\209\Labs\AnalogueLab2\Lab2Task5.asc

Direct Newton iteration for .op point succeeded.

Date: Thu Aug 18 19:52:03 2016
Total elapsed time: 3.609 seconds.

tnom = 27
temp = 27
method = modified trap
totiter = 200066
traniter = 200040
tranpoints = 100021
accept = 100021
rejected = 0
matrix size = 15
fillins = 3
solver = Normal
Matrix Compiler1: 632 bytes object code size  0.7/0.5/[0.4]
Matrix Compiler2: off  [0.4]/0.7/0.5


