Circuit: * C:\Users\The Dude\Desktop\UOA Year 2\Semester 2\Electeng 209\3 Lab Documents\Labs\all-labs\209\Labs\AnalogueLab2\Lab2Task4.asc

Direct Newton iteration for .op point succeeded.

Date: Fri Aug 19 00:55:37 2016
Total elapsed time: 6.092 seconds.

tnom = 27
temp = 27
method = modified trap
totiter = 200074
traniter = 200052
tranpoints = 100027
accept = 100026
rejected = 1
matrix size = 15
fillins = 1
solver = Normal
Matrix Compiler1: 632 bytes object code size  0.7/0.5/[0.4]
Matrix Compiler2: off  [0.3]/0.7/0.4


