Circuit: * E:\BE\ELECTENG209\Labs\AnalogueLab2\Lab2Task5.asc

Direct Newton iteration for .op point succeeded.

Date: Fri Aug 19 13:47:03 2016
Total elapsed time: 35.879 seconds.

tnom = 27
temp = 27
method = modified trap
totiter = 200066
traniter = 200040
tranpoints = 100021
accept = 100021
rejected = 0
matrix size = 15
fillins = 3
solver = Normal
Matrix Compiler1: 632 bytes object code size  1.1/0.5/[0.2]
Matrix Compiler2: 1.13 KB object code size  0.5/0.7/[0.4]


