Circuit: * C:\Users\The Dude\Desktop\UOA Year 2\Semester 2\Electeng 209\3 Lab Documents\Labs\all-labs\209\Labs\AnalogueLab2\Lab2Task3.asc

Direct Newton iteration for .op point succeeded.

Date: Fri Aug 19 00:28:44 2016
Total elapsed time: 0.641 seconds.

tnom = 27
temp = 27
method = modified trap
totiter = 29052
traniter = 29038
tranpoints = 8470
accept = 5758
rejected = 2712
matrix size = 11
fillins = 4
solver = Normal
Matrix Compiler1: 1.45 KB object code size  0.8/0.7/[0.5]
Matrix Compiler2: 1.07 KB object code size  0.4/0.6/[0.4]


