Circuit: * E:\BE\ELECTENG209\Labs\AnalogueLab2\Lab2Task3.asc

Direct Newton iteration for .op point succeeded.

Date: Fri Aug 19 12:17:47 2016
Total elapsed time: 0.460 seconds.

tnom = 27
temp = 27
method = modified trap
totiter = 2457
traniter = 2445
tranpoints = 857
accept = 578
rejected = 279
matrix size = 11
fillins = 4
solver = Normal
Matrix Compiler1: 1.45 KB object code size  1.3/0.6/[0.4]
Matrix Compiler2: 1.07 KB object code size  0.4/0.6/[0.4]


