Circuit: * C:\Users\The Dude\Desktop\UOA Year 2\Semester 2\Electeng 209\3 Lab Documents\Labs\all-labs\209\Labs\AnalogueLab2\q1analoguelab2.asc

Direct Newton iteration for .op point succeeded.

Date: Thu Aug 18 18:50:03 2016
Total elapsed time: 0.156 seconds.

tnom = 27
temp = 27
method = modified trap
totiter = 2557
traniter = 2508
tranpoints = 782
accept = 564
rejected = 218
matrix size = 8
fillins = 1
solver = Normal
Matrix Compiler1: 300 bytes object code size  0.4/0.3/[0.2]
Matrix Compiler2: 628 bytes object code size  0.3/0.5/[0.2]


