Circuit: * C:\Users\The Dude\Desktop\UOA Year 2\Semester 2\Electeng 209\3 Lab Documents\Labs\Analogue lab2\q2analoguelab2.asc

Direct Newton iteration for .op point succeeded.

Date: Wed Aug 17 13:15:52 2016
Total elapsed time: 0.031 seconds.

tnom = 27
temp = 27
method = trap
totiter = 49
traniter = 0
tranpoints = 0
accept = 0
rejected = 0
matrix size = 8
fillins = 1
solver = Normal
Matrix Compiler1:      16 opcodes
Matrix Compiler2:      50 opcodes

