Circuit: * C:\Users\The Dude\Desktop\UOA Year 2\Semester 2\Electeng 209\3 Lab Documents\Labs\all-labs\209\Labs\AnalogueLab2\q2analoguelab2.asc

Direct Newton iteration for .op point succeeded.

Date: Thu Aug 18 21:16:39 2016
Total elapsed time: 0.025 seconds.

tnom = 27
temp = 27
method = trap
totiter = 49
traniter = 0
tranpoints = 0
accept = 0
rejected = 0
matrix size = 8
fillins = 1
solver = Normal
Matrix Compiler1:      16 opcodes
Matrix Compiler2:      50 opcodes

