Circuit: * C:\Users\James\Desktop\Git209\209\SpiceFiles\Draft1.asc

Direct Newton iteration for .op point succeeded.

Date: Wed Aug 24 19:13:42 2016
Total elapsed time: 0.268 seconds.

tnom = 27
temp = 27
method = modified trap
totiter = 200037
traniter = 200034
tranpoints = 100018
accept = 100018
rejected = 0
matrix size = 6
fillins = 0
solver = Normal
Matrix Compiler1: 164 bytes object code size  0.1/0.0/[0.0]
Matrix Compiler2: 374 bytes object code size  0.1/0.1/[0.0]


