Circuit: * C:\Users\Adil B\Documents\SCHOOL STUFF\2016\SEMSTER 2\ELECTENG 209\Git Colab\209\SpiceFiles\FullSimulationEditedVsense.asc

Per .tran options, skipping operating point for transient analysis.
Ignoring empty pin current: Ix(u2:3)

Date: Wed Sep 21 21:19:15 2016
Total elapsed time: 0.700 seconds.

tnom = 27
temp = 27
method = modified trap
totiter = 22120
traniter = 22120
tranpoints = 10366
accept = 10168
rejected = 198
matrix size = 47
fillins = 33
solver = Normal
Thread vector: 11.4/7.7[2] 3.0/2.3[2] 0.7/0.8[1] 0.2/1.1[1]  2592/500
Matrix Compiler1: 6.72 KB object code size  1.1/0.5/[0.3]
Matrix Compiler2: 5.07 KB object code size  0.4/0.9/[0.2]


