Circuit: * C:\Users\James\Desktop\Git209\209\SpiceFiles\FullSimulation.asc

Per .tran options, skipping operating point for transient analysis.
Ignoring empty pin current: Ix(u2:3)

Date: Mon Aug 29 19:12:20 2016
Total elapsed time: 0.484 seconds.

tnom = 27
temp = 27
method = modified trap
totiter = 21732
traniter = 21732
tranpoints = 10271
accept = 10175
rejected = 96
matrix size = 41
fillins = 32
solver = Normal
Thread vector: 9.8/6.7[2] 3.3/2.4[2] 0.8/0.7[2] 0.2/0.8[1]  2592/500
Matrix Compiler1: 5.46 KB object code size  1.0/0.5/[0.3]
Matrix Compiler2: 4.36 KB object code size  0.4/0.5/[0.3]


