Circuit: * E:\BE\ELECTENG209\SpiceFiles\FullSimulationEditedVsense.asc

Per .tran options, skipping operating point for transient analysis.
Ignoring empty pin current: Ix(u2:3)

Date: Thu Sep 01 13:42:22 2016
Total elapsed time: 3.948 seconds.

tnom = 27
temp = 27
method = modified trap
totiter = 21142
traniter = 21142
tranpoints = 10149
accept = 10109
rejected = 40
matrix size = 39
fillins = 27
solver = Normal
Thread vector: 21.7/14.6[2] 7.4/5.3[2] 1.9/1.8[1] 0.4/1.4[1]  2592/500
Matrix Compiler1: 5.18 KB object code size  2.2/1.1/[0.6]
Matrix Compiler2: 4.15 KB object code size  0.9/1.0/[0.5]


