Circuit: * C:\Users\James\Desktop\Git209\209\SpiceFiles\FullSimulationEditedVsense.asc

Per .tran options, skipping operating point for transient analysis.
Ignoring empty pin current: Ix(u2:3)

Date: Wed Sep 14 05:09:57 2016
Total elapsed time: 0.433 seconds.

tnom = 27
temp = 27
method = modified trap
totiter = 21142
traniter = 21142
tranpoints = 10149
accept = 10109
rejected = 40
matrix size = 39
fillins = 27
solver = Normal
Thread vector: 12.4/7.3[2] 3.7/2.4[2] 0.9/0.8[2] 0.2/0.7[1]  2592/500
Matrix Compiler1: 5.18 KB object code size  1.1/0.6/[0.4]
Matrix Compiler2: 4.15 KB object code size  0.4/0.5/[0.3]


