Circuit: * C:\Users\adilb_000\Documents\SCHOOL STUFF\2016\SEMSTER 2\ELECTENG 209\Git Colab\209\SpiceFiles\FullSimulation.asc

Per .tran options, skipping operating point for transient analysis.
Ignoring empty pin current: Ix(u2:3)

Date: Sun Aug 21 14:52:08 2016
Total elapsed time: 0.843 seconds.

tnom = 27
temp = 27
method = modified trap
totiter = 9649
traniter = 9649
tranpoints = 3030
accept = 2232
rejected = 798
matrix size = 38
fillins = 19
solver = Normal
Thread vector: 38.0/28.3[2] 14.5/11.4[2] 3.8/4.5[1] 0.7/1.6[1]  2592/500
Matrix Compiler1: 4.59 KB object code size  3.1/2.3/[1.5]
Matrix Compiler2: 3.93 KB object code size  1.2/2.0/[1.0]


