Circuit: * C:\Users\Adil B\Documents\SCHOOL STUFF\2016\SEMSTER 2\ELECTENG 209\Git Colab\209\SpiceFiles\FullSimulationEditedVsense.asc

Per .tran options, skipping operating point for transient analysis.
Ignoring empty pin current: Ix(u2:3)

Date: Wed Sep 21 22:13:20 2016
Total elapsed time: 0.647 seconds.

tnom = 27
temp = 27
method = modified trap
totiter = 21122
traniter = 21122
tranpoints = 10147
accept = 10108
rejected = 39
matrix size = 47
fillins = 33
solver = Normal
Thread vector: 10.6/7.5[2] 3.0/2.7[2] 0.7/1.1[1] 0.3/2.0[1]  2592/500
Matrix Compiler1: 6.72 KB object code size  1.5/0.8/[0.3]
Matrix Compiler2: 5.07 KB object code size  0.4/0.7/[0.3]


