Circuit: * C:\Users\James\Desktop\Git209\209\SpiceFiles\FullSimulationEditedVsense.asc

Per .tran options, skipping operating point for transient analysis.
Ignoring empty pin current: Ix(u2:3)

Date: Mon Sep 05 01:57:33 2016
Total elapsed time: 0.373 seconds.

tnom = 27
temp = 27
method = modified trap
totiter = 21120
traniter = 21120
tranpoints = 10146
accept = 10107
rejected = 39
matrix size = 39
fillins = 27
solver = Normal
Thread vector: 11.0/7.3[2] 3.6/2.5[2] 0.9/0.7[2] 0.3/0.7[1]  2592/500
Matrix Compiler1: 5.18 KB object code size  1.1/0.6/[0.4]
Matrix Compiler2: 4.15 KB object code size  0.5/0.5/[0.3]


