Circuit: * C:\Users\mark_\Documents\ELECTENG 209\209\SpiceFiles\FullSimulationEditedVsense.asc

Per .tran options, skipping operating point for transient analysis.
Ignoring empty pin current: Ix(u2:3)

Date: Fri Oct 07 14:12:23 2016
Total elapsed time: 0.745 seconds.

tnom = 27
temp = 27
method = modified trap
totiter = 28656
traniter = 28656
tranpoints = 11815
accept = 10978
rejected = 837
matrix size = 47
fillins = 36
solver = Normal
Thread vector: 12.6/9.1[2] 3.4/2.5[2] 0.8/0.8[1] 0.3/0.8[1]  2592/500
Matrix Compiler1: 6.83 KB object code size  1.3/0.6/[0.4]
Matrix Compiler2: 5.12 KB object code size  0.4/0.6/[0.3]


