Circuit: * C:\Users\James\Desktop\Git209\209\SpiceFiles\FullSimulationEditedVsense.asc

Per .tran options, skipping operating point for transient analysis.
Ignoring empty pin current: Ix(u2:3)

Date: Fri Sep 02 02:35:09 2016
Total elapsed time: 0.378 seconds.

tnom = 27
temp = 27
method = modified trap
totiter = 21142
traniter = 21142
tranpoints = 10149
accept = 10109
rejected = 40
matrix size = 39
fillins = 27
solver = Normal
Thread vector: 10.4/7.2[2] 3.3/2.6[2] 0.8/0.7[1] 0.2/0.7[1]  2592/500
Matrix Compiler1: 5.18 KB object code size  1.0/0.5/[0.3]
Matrix Compiler2: 4.15 KB object code size  0.4/0.5/[0.2]


