Circuit: * E:\SCHOOL STUFF\2016\SEMSTER 2\ELECTENG 209\Git Colab\209\SpiceFiles\FullSimulation.asc

Per .tran options, skipping operating point for transient analysis.
Ignoring empty pin current: Ix(u2:3)

Date: Sun Aug 21 15:48:21 2016
Total elapsed time: 0.942 seconds.

tnom = 27
temp = 27
method = modified trap
totiter = 9267
traniter = 9267
tranpoints = 2926
accept = 2153
rejected = 773
matrix size = 41
fillins = 23
solver = Normal
Thread vector: 8.4/6.2[2] 2.8/2.2[2] 0.7/0.7[1] 0.2/0.6[1]  2592/500
Matrix Compiler1: 4.87 KB object code size  1.2/0.7/[0.3]
Matrix Compiler2: 4.21 KB object code size  0.3/0.4/[0.2]


