Circuit: * C:\Users\James\Desktop\Git209\209\SpiceFiles\FullSimulationEditedVsense.asc

Per .tran options, skipping operating point for transient analysis.
Ignoring empty pin current: Ix(u2:3)

Date: Wed Aug 31 10:53:19 2016
Total elapsed time: 0.438 seconds.

tnom = 27
temp = 27
method = modified trap
totiter = 21641
traniter = 21641
tranpoints = 10241
accept = 10156
rejected = 85
matrix size = 39
fillins = 27
solver = Normal
Thread vector: 9.9/7.0[2] 3.4/2.4[2] 0.8/0.8[1] 0.2/0.7[1]  2592/500
Matrix Compiler1: 5.18 KB object code size  1.0/0.5/[0.4]
Matrix Compiler2: 4.15 KB object code size  0.4/0.5/[0.3]


