Circuit: * C:\Users\James\Desktop\Git209\209\SpiceFiles\FullSimulation.asc

Per .tran options, skipping operating point for transient analysis.
Ignoring empty pin current: Ix(u2:3)

Date: Sat Aug 20 11:37:08 2016
Total elapsed time: 0.374 seconds.

tnom = 27
temp = 27
method = modified trap
totiter = 9341
traniter = 9341
tranpoints = 2972
accept = 2221
rejected = 751
matrix size = 38
fillins = 19
solver = Normal
Thread vector: 11.1/9.6[2] 4.2/3.5[2] 1.1/1.2[1] 0.2/0.4[1]  2592/500
Matrix Compiler1: 4.59 KB object code size  0.9/0.7/[0.4]
Matrix Compiler2: 3.93 KB object code size  0.5/0.8/[0.3]


