Circuit: * C:\Users\James\Desktop\Git209\209\SpiceFiles\FullSimulationEditedVsense.asc

Per .tran options, skipping operating point for transient analysis.
Ignoring empty pin current: Ix(u2:3)

Date: Sun Oct 16 19:57:14 2016
Total elapsed time: 3.276 seconds.

tnom = 27
temp = 27
method = modified trap
totiter = 27465
traniter = 27465
tranpoints = 11943
accept = 11064
rejected = 879
matrix size = 47
fillins = 37
solver = Normal
Thread vector: 60.1/44.5[2] 19.5/15.1[2] 4.7/4.6[1] 1.2/1.5[1]  2592/500
Matrix Compiler1: 7.01 KB object code size  6.5/3.9/[2.1]
Matrix Compiler2: 5.16 KB object code size  2.5/3.8/[1.3]


