Circuit: * C:\Users\Adil B\Documents\SCHOOL STUFF\2016\SEMSTER 2\ELECTENG 209\Git Colab\209\SpiceFiles\FullSimulation.asc

Per .tran options, skipping operating point for transient analysis.
Ignoring empty pin current: Ix(u2:3)

Date: Sat Aug 20 21:27:19 2016
Total elapsed time: 0.128 seconds.

tnom = 27
temp = 27
method = modified trap
totiter = 7541
traniter = 7541
tranpoints = 2391
accept = 1836
rejected = 555
matrix size = 38
fillins = 19
solver = Normal
Thread vector: 8.7/7.0[2] 2.6/1.8[2] 0.7/0.7[1] 0.1/0.6[1]  2592/500
Matrix Compiler1: 4.59 KB object code size  0.8/0.4/[0.2]
Matrix Compiler2: 3.93 KB object code size  0.3/0.4/[0.2]


